-----BEGIN CERTIFICATE-----
MIIFCTCCAvGgAwIBAgIUQ54UhPHHIW8mW4IT8wPQVkSoxT8wDQYJKoZIhvcNAQEL
BQAwFDESMBAGA1UEAwwJbG9jYWxob3N0MB4XDTIxMDQwNzAzMjg1NloXDTI0MDEy
NjAzMjg1NlowFDESMBAGA1UEAwwJbG9jYWxob3N0MIICIjANBgkqhkiG9w0BAQEF
AAOCAg8AMIICCgKCAgEA7wS3QOXkOzMHfYYaqXITCPR/fl5RRJUD8rMLcPidNFIN
WrrYybkH18WfRN/1EHY3xsyD/v4lFfnkrjBAhSHEOedB9M7dBrm3BR/vJIcXTXTZ
lAt5axrd5box/YpCEMcf1iaH+Nj0EFCAb3LbEGOYSRUJPM9dR+h/FzdRx8NurTFC
BoHIE3T+w+qAAbreSzubg4W60hKYUbu5CSfCJuG5CAhutZt0tyvFgAWpUfNk8dCf
V69pVhLl+PbtdEkGod6dg5KbiqBJc8lEiI4WfWtIcNojkaO6r4RK28CXLzIuAhRs
RldzDNXpsqP+uKrY4SBeWQfTAobqt16XkyK2gucsT/F2185VvUxTb5IqLWe95ywW
ikvj01H/XgCPsNo7ZEuQcxaVYP3B+2LD1orqBomIU4poObhNIBYmCW+sQR7SHGv7
LabJ8eH1dTG4vWhREanf2bo6uLFIvLzzJW3CucHvwnoQLOrbpAxlFMy/q7jTsXfE
MT3DRF33Ws8K2Tj8LFrUdEE0CsySVWQKDJpWpxpv7PpB+eeyMDn1CPTToVeGxrkV
vYm1c9JnGwyDa+5UyXEe3zbr4ahnaG/0j8rhFAbjHLZYs/4hbM/VaBSvOI1sRPpZ
uD21OD4qazwQHUA+JZO0rrbT4IIqu7D8mf37IE1EqKRXrrfIlyeLVhRIU7sAzj0C
AwEAAaNTMFEwHQYDVR0OBBYEFIp3fO9DduayLcLDVtKOD1IEgJpbMB8GA1UdIwQY
MBaAFIp3fO9DduayLcLDVtKOD1IEgJpbMA8GA1UdEwEB/wQFMAMBAf8wDQYJKoZI
hvcNAQELBQADggIBANRJG49aYWEmYO1xcpYf/N+3tZHFKw74MokgnjPgccFJnFFU
tbjvCXREDA3wkUNnuybhKJP8ouTxPh1fPfvnhpD33zEtpHbXbp5EJueWHrJ1Iit2
4/uaGoZixaDEjIK3QNspllQ7onDNL7FyERV2t+9hfuS5/40W4w4G/Ch7olJo5L2w
aIHs3DZwjPDccF/rtXC4lPz7ZvD8n4BTJMNXdr/m6yHCzuzHoGxwgcmLmUKsFXNC
WVfsqvWG+vuUmOGwkWJV/fwPJ6ii3xLoF/bEqtXwMlT0RFY7vCixejq+xH5TIU2n
Z0ZC4cTyC/Y4xyVksnW7W8H/5xDokmqmj8eJAQsU9Yrk1pl5aylCNmrXcbYeCtre
bw1VpkC92WmnVH7zLn9tRqmO5JAFL0jmT9+lMJIs1GKnQOxEtwcMF/VC7JctcIJv
cYOJgeEcIW8t+zRp7hS2yqDAFyZhDsyeVomGlBZxTT9uWTyYp1E53FX/xGajy2EP
nJLmOmPoeT6I8sKPJcp2+VrN3+WylK7MdXy7PMucyBb4o9SYNaTcVIuf7oe5FTP2
f8kmqDNac0fVJou4yqoYMn5t1Ag8ZWQiW7vLUgLWVmxJB4ury4v2Y4W7HH9WVrN0
WUYUHxqR6blXKWXjA1r2YDBfKVCjrI5lhJ0IjvY5D4juTwWtanGuxSDXdm1C
-----END CERTIFICATE-----
